Circuit: ECSE 334 - Assignment 1

Direct Newton iteration for .op point succeeded.

Date: Sun Sep 24 22:56:34 2017
Total elapsed time: 0.019 seconds.

tnom = 27
temp = 27
method = modified trap
totiter = 2088
traniter = 2082
tranpoints = 1042
accept = 1042
rejected = 0
matrix size = 8
fillins = 0
solver = Normal
Matrix Compiler1: 514 bytes object code size  0.1/0.1/[0.0]
Matrix Compiler2: 710 bytes object code size  0.0/0.1/[0.0]

