Circuit: ECSE 334 - Assignment 3

Instance "m5": Length shorter than recommended for a level 2 MOSFET.
Instance "m2": Length shorter than recommended for a level 2 MOSFET.
Instance "m1": Length shorter than recommended for a level 2 MOSFET.
Instance "m4": Length shorter than recommended for a level 2 MOSFET.
Instance "m3": Length shorter than recommended for a level 2 MOSFET.
Direct Newton iteration for .op point succeeded.

Date: Tue Nov 14 19:41:12 2017
Total elapsed time: 0.084 seconds.

tnom = 27
temp = 27
method = trap
totiter = 14
traniter = 0
tranpoints = 0
accept = 0
rejected = 0
matrix size = 18
fillins = 2
solver = Normal
Matrix Compiler1:      49 opcodes
Matrix Compiler2: 1.30 KB object code size
